Version 4
SHEET 1 880 680
WIRE 32 -240 -240 -240
WIRE 448 -240 32 -240
WIRE 416 -208 -208 -208
WIRE 160 -112 -16 -112
WIRE 352 -112 256 -112
WIRE 32 -80 32 -240
WIRE 32 -80 -16 -80
WIRE 48 -80 32 -80
WIRE 160 -80 128 -80
WIRE 448 -64 448 -240
WIRE 480 -64 448 -64
WIRE 32 -48 -16 -48
WIRE 320 -48 256 -48
WIRE -208 16 -208 -208
WIRE 32 16 32 -48
WIRE 32 16 -208 16
WIRE 416 64 416 -208
WIRE 480 64 416 64
WIRE -208 96 -208 16
WIRE 128 96 -208 96
WIRE -240 112 -240 -240
WIRE 128 112 -240 112
WIRE 320 112 320 -48
WIRE 320 112 288 112
WIRE 352 144 352 -112
WIRE 352 144 288 144
SYMBOL ESP32-CAM 208 192 R0
SYMATTR InstName X1
SYMBOL TLP592A 224 -64 R180
SYMATTR InstName X3
SYMBOL res 32 -96 M90
WINDOW 0 5 56 VBottom 2
WINDOW 3 27 56 VTop 2
SYMATTR InstName R1
SYMATTR Value 470
SYMBOL Photores -16 -80 R180
SYMATTR InstName X4
SYMBOL MicroUSB 480 0 R180
SYMATTR InstName X2
